MODEL 1
REMARK VINA RESULT:    -5.308      0.000      0.000
REMARK INTER + INTRA:          -6.296
REMARK INTER:                  -6.239
REMARK INTRA:                  -0.057
REMARK UNBOUND:                -0.057
REMARK  5 active torsions:
REMARK  status: ('A' for Active; 'I' for Inactive)
REMARK    1  A    between atoms: O_1  and  C_7 
REMARK    2  A    between atoms: O_2  and  C_8 
REMARK    3  A    between atoms: O_3  and  C_9 
REMARK    4  A    between atoms: O_4  and  C_12 
REMARK    5  A    between atoms: C_6  and  C_12 
ROOT
HETATM    1  C   UNL     1       7.923  -2.075  -9.984  1.00  0.00     0.043 A 
HETATM    2  C   UNL     1       5.245  -2.269  -9.224  1.00  0.00     0.132 A 
HETATM    3  C   UNL     1       6.144  -3.278  -8.876  1.00  0.00     0.102 A 
HETATM    4  C   UNL     1       5.685  -1.162  -9.951  1.00  0.00     0.102 A 
HETATM    5  C   UNL     1       7.482  -3.180  -9.257  1.00  0.00     0.057 A 
HETATM    6  C   UNL     1       7.023  -1.066 -10.331  1.00  0.00     0.057 A 
ENDROOT
BRANCH   1   7
HETATM    7  C   UNL     1       9.318  -1.974 -10.381  1.00  0.00     0.176 C 
HETATM    8  O   UNL     1      10.265  -2.528  -9.814  1.00  0.00    -0.646 OA
BRANCH   7   9
HETATM    9  O   UNL     1       9.491  -1.186 -11.477  1.00  0.00    -0.773 OA
HETATM   10  H   UNL     1      10.218  -1.512 -12.051  1.00  0.00     0.167 HD
ENDBRANCH   7   9
ENDBRANCH   1   7
BRANCH   3  11
HETATM   11  O   UNL     1       5.726  -4.362  -8.166  1.00  0.00    -0.358 OA
HETATM   12  H   UNL     1       6.364  -5.087  -8.287  1.00  0.00     0.217 HD
ENDBRANCH   3  11
BRANCH   4  13
HETATM   13  O   UNL     1       4.817  -0.171 -10.298  1.00  0.00    -0.358 OA
HETATM   14  H   UNL     1       5.318   0.528 -10.753  1.00  0.00     0.217 HD
ENDBRANCH   4  13
BRANCH   2  15
HETATM   15  O   UNL     1       3.936  -2.364  -8.852  1.00  0.00    -0.356 OA
HETATM   16  H   UNL     1       3.806  -1.833  -8.048  1.00  0.00     0.218 HD
ENDBRANCH   2  15
TORSDOF 5
ENDMDL
MODEL 2
REMARK VINA RESULT:    -5.293      0.104      2.404
REMARK INTER + INTRA:          -6.279
REMARK INTER:                  -6.221
REMARK INTRA:                  -0.057
REMARK UNBOUND:                -0.057
REMARK  5 active torsions:
REMARK  status: ('A' for Active; 'I' for Inactive)
REMARK    1  A    between atoms: O_1  and  C_7 
REMARK    2  A    between atoms: O_2  and  C_8 
REMARK    3  A    between atoms: O_3  and  C_9 
REMARK    4  A    between atoms: O_4  and  C_12 
REMARK    5  A    between atoms: C_6  and  C_12 
ROOT
HETATM    1  C   UNL     1       7.947  -2.010 -10.066  1.00  0.00     0.043 A 
HETATM    2  C   UNL     1       5.284  -2.198  -9.251  1.00  0.00     0.132 A 
HETATM    3  C   UNL     1       5.714  -1.091  -9.984  1.00  0.00     0.102 A 
HETATM    4  C   UNL     1       6.187  -3.211  -8.926  1.00  0.00     0.102 A 
HETATM    5  C   UNL     1       7.045  -0.998 -10.390  1.00  0.00     0.057 A 
HETATM    6  C   UNL     1       7.517  -3.117  -9.332  1.00  0.00     0.057 A 
ENDROOT
BRANCH   1   7
HETATM    7  C   UNL     1       9.335  -1.911 -10.489  1.00  0.00     0.176 C 
HETATM    8  O   UNL     1      10.291  -2.469  -9.941  1.00  0.00    -0.646 OA
BRANCH   7   9
HETATM    9  O   UNL     1       9.490  -1.119 -11.584  1.00  0.00    -0.773 OA
HETATM   10  H   UNL     1       8.864  -1.360 -12.301  1.00  0.00     0.167 HD
ENDBRANCH   7   9
ENDBRANCH   1   7
BRANCH   3  11
HETATM   11  O   UNL     1       4.842  -0.096 -10.309  1.00  0.00    -0.358 OA
HETATM   12  H   UNL     1       4.361   0.178  -9.508  1.00  0.00     0.217 HD
ENDBRANCH   3  11
BRANCH   4  13
HETATM   13  O   UNL     1       5.781  -4.297  -8.209  1.00  0.00    -0.358 OA
HETATM   14  H   UNL     1       5.299  -3.982  -7.424  1.00  0.00     0.217 HD
ENDBRANCH   4  13
BRANCH   2  15
HETATM   15  O   UNL     1       3.984  -2.289  -8.853  1.00  0.00    -0.356 OA
HETATM   16  H   UNL     1       3.417  -1.995  -9.587  1.00  0.00     0.218 HD
ENDBRANCH   2  15
TORSDOF 5
ENDMDL
MODEL 3
REMARK VINA RESULT:    -5.143      2.922      4.467
REMARK INTER + INTRA:          -6.102
REMARK INTER:                  -6.042
REMARK INTRA:                  -0.060
REMARK UNBOUND:                -0.057
REMARK  5 active torsions:
REMARK  status: ('A' for Active; 'I' for Inactive)
REMARK    1  A    between atoms: O_1  and  C_7 
REMARK    2  A    between atoms: O_2  and  C_8 
REMARK    3  A    between atoms: O_3  and  C_9 
REMARK    4  A    between atoms: O_4  and  C_12 
REMARK    5  A    between atoms: C_6  and  C_12 
ROOT
HETATM    1  C   UNL     1       4.251  -1.217  -9.436  1.00  0.00     0.043 A 
HETATM    2  C   UNL     1       1.600  -0.816  -8.662  1.00  0.00     0.132 A 
HETATM    3  C   UNL     1       1.985  -0.584  -9.984  1.00  0.00     0.102 A 
HETATM    4  C   UNL     1       2.542  -1.248  -7.728  1.00  0.00     0.102 A 
HETATM    5  C   UNL     1       3.310  -0.785 -10.369  1.00  0.00     0.057 A 
HETATM    6  C   UNL     1       3.867  -1.449  -8.115  1.00  0.00     0.057 A 
ENDROOT
BRANCH   1   7
HETATM    7  C   UNL     1       5.633  -1.426  -9.839  1.00  0.00     0.176 C 
HETATM    8  O   UNL     1       6.523  -1.898  -9.125  1.00  0.00    -0.646 OA
BRANCH   7   9
HETATM    9  O   UNL     1       5.864  -1.038 -11.123  1.00  0.00    -0.773 OA
HETATM   10  H   UNL     1       5.314  -1.541 -11.761  1.00  0.00     0.167 HD
ENDBRANCH   7   9
ENDBRANCH   1   7
BRANCH   3  11
HETATM   11  O   UNL     1       1.074  -0.163 -10.904  1.00  0.00    -0.358 OA
HETATM   12  H   UNL     1       0.479   0.486 -10.489  1.00  0.00     0.217 HD
ENDBRANCH   3  11
BRANCH   4  13
HETATM   13  O   UNL     1       2.181  -1.476  -6.434  1.00  0.00    -0.358 OA
HETATM   14  H   UNL     1       2.269  -0.642  -5.941  1.00  0.00     0.217 HD
ENDBRANCH   4  13
BRANCH   2  15
HETATM   15  O   UNL     1       0.306  -0.619  -8.284  1.00  0.00    -0.356 OA
HETATM   16  H   UNL     1      -0.187  -0.270  -9.047  1.00  0.00     0.218 HD
ENDBRANCH   2  15
TORSDOF 5
ENDMDL
MODEL 4
REMARK VINA RESULT:    -5.135      2.919      3.982
REMARK INTER + INTRA:          -6.093
REMARK INTER:                  -6.034
REMARK INTRA:                  -0.060
REMARK UNBOUND:                -0.057
REMARK  5 active torsions:
REMARK  status: ('A' for Active; 'I' for Inactive)
REMARK    1  A    between atoms: O_1  and  C_7 
REMARK    2  A    between atoms: O_2  and  C_8 
REMARK    3  A    between atoms: O_3  and  C_9 
REMARK    4  A    between atoms: O_4  and  C_12 
REMARK    5  A    between atoms: C_6  and  C_12 
ROOT
HETATM    1  C   UNL     1       4.273  -1.199  -9.420  1.00  0.00     0.043 A 
HETATM    2  C   UNL     1       1.616  -0.825  -8.653  1.00  0.00     0.132 A 
HETATM    3  C   UNL     1       2.565  -1.222  -7.711  1.00  0.00     0.102 A 
HETATM    4  C   UNL     1       1.995  -0.614  -9.979  1.00  0.00     0.102 A 
HETATM    5  C   UNL     1       3.893  -1.409  -8.095  1.00  0.00     0.057 A 
HETATM    6  C   UNL     1       3.323  -0.801 -10.362  1.00  0.00     0.057 A 
ENDROOT
BRANCH   1   7
HETATM    7  C   UNL     1       5.657  -1.395  -9.820  1.00  0.00     0.176 C 
HETATM    8  O   UNL     1       6.555  -1.835  -9.096  1.00  0.00    -0.646 OA
BRANCH   7   9
HETATM    9  O   UNL     1       5.880  -1.035 -11.114  1.00  0.00    -0.773 OA
HETATM   10  H   UNL     1       5.692  -1.771 -11.735  1.00  0.00     0.167 HD
ENDBRANCH   7   9
ENDBRANCH   1   7
BRANCH   3  11
HETATM   11  O   UNL     1       2.207  -1.430  -6.413  1.00  0.00    -0.358 OA
HETATM   12  H   UNL     1       2.801  -0.921  -5.834  1.00  0.00     0.217 HD
ENDBRANCH   3  11
BRANCH   4  13
HETATM   13  O   UNL     1       1.077  -0.228 -10.909  1.00  0.00    -0.358 OA
HETATM   14  H   UNL     1       0.325   0.177 -10.445  1.00  0.00     0.217 HD
ENDBRANCH   4  13
BRANCH   2  15
HETATM   15  O   UNL     1       0.318  -0.643  -8.278  1.00  0.00    -0.356 OA
HETATM   16  H   UNL     1      -0.156  -0.214  -9.011  1.00  0.00     0.218 HD
ENDBRANCH   2  15
TORSDOF 5
ENDMDL
MODEL 5
REMARK VINA RESULT:    -4.994      1.451      4.275
REMARK INTER + INTRA:          -5.927
REMARK INTER:                  -5.871
REMARK INTRA:                  -0.056
REMARK UNBOUND:                -0.057
REMARK  5 active torsions:
REMARK  status: ('A' for Active; 'I' for Inactive)
REMARK    1  A    between atoms: O_1  and  C_7 
REMARK    2  A    between atoms: O_2  and  C_8 
REMARK    3  A    between atoms: O_3  and  C_9 
REMARK    4  A    between atoms: O_4  and  C_12 
REMARK    5  A    between atoms: C_6  and  C_12 
ROOT
HETATM    1  C   UNL     1       4.542  -1.491  -9.592  1.00  0.00     0.043 A 
HETATM    2  C   UNL     1       7.145  -2.481  -9.762  1.00  0.00     0.132 A 
HETATM    3  C   UNL     1       6.205  -3.124  -8.956  1.00  0.00     0.102 A 
HETATM    4  C   UNL     1       6.783  -1.342 -10.482  1.00  0.00     0.102 A 
HETATM    5  C   UNL     1       4.904  -2.629  -8.871  1.00  0.00     0.057 A 
HETATM    6  C   UNL     1       5.482  -0.848 -10.397  1.00  0.00     0.057 A 
ENDROOT
BRANCH   1   7
HETATM    7  C   UNL     1       3.185  -0.974  -9.502  1.00  0.00     0.176 C 
HETATM    8  O   UNL     1       2.578  -0.398 -10.410  1.00  0.00    -0.646 OA
BRANCH   7   9
HETATM    9  O   UNL     1       2.625  -1.192  -8.281  1.00  0.00    -0.773 OA
HETATM   10  H   UNL     1       1.649  -1.270  -8.336  1.00  0.00     0.167 HD
ENDBRANCH   7   9
ENDBRANCH   1   7
BRANCH   3  11
HETATM   11  O   UNL     1       6.546  -4.237  -8.249  1.00  0.00    -0.358 OA
HETATM   12  H   UNL     1       6.009  -4.275  -7.438  1.00  0.00     0.217 HD
ENDBRANCH   3  11
BRANCH   4  13
HETATM   13  O   UNL     1       7.693  -0.704 -11.271  1.00  0.00    -0.358 OA
HETATM   14  H   UNL     1       8.197  -1.376 -11.761  1.00  0.00     0.217 HD
ENDBRANCH   4  13
BRANCH   2  15
HETATM   15  O   UNL     1       8.417  -2.965  -9.844  1.00  0.00    -0.356 OA
HETATM   16  H   UNL     1       8.992  -2.413  -9.286  1.00  0.00     0.218 HD
ENDBRANCH   2  15
TORSDOF 5
ENDMDL
MODEL 6
REMARK VINA RESULT:    -4.600     17.651     19.458
REMARK INTER + INTRA:          -5.464
REMARK INTER:                  -5.411
REMARK INTRA:                  -0.052
REMARK UNBOUND:                -0.057
REMARK  5 active torsions:
REMARK  status: ('A' for Active; 'I' for Inactive)
REMARK    1  A    between atoms: O_1  and  C_7 
REMARK    2  A    between atoms: O_2  and  C_8 
REMARK    3  A    between atoms: O_3  and  C_9 
REMARK    4  A    between atoms: O_4  and  C_12 
REMARK    5  A    between atoms: C_6  and  C_12 
ROOT
HETATM    1  C   UNL     1       9.671 -11.750   5.496  1.00  0.00     0.043 A 
HETATM    2  C   UNL     1      11.643 -12.133   7.433  1.00  0.00     0.132 A 
HETATM    3  C   UNL     1      11.934 -11.414   6.273  1.00  0.00     0.102 A 
HETATM    4  C   UNL     1      10.365 -12.660   7.624  1.00  0.00     0.102 A 
HETATM    5  C   UNL     1      10.948 -11.224   5.305  1.00  0.00     0.057 A 
HETATM    6  C   UNL     1       9.380 -12.469   6.656  1.00  0.00     0.057 A 
ENDROOT
BRANCH   1   7
HETATM    7  C   UNL     1       8.644 -11.552   4.485  1.00  0.00     0.176 C 
HETATM    8  O   UNL     1       8.366 -10.474   3.950  1.00  0.00    -0.646 OA
BRANCH   7   9
HETATM    9  O   UNL     1       7.994 -12.705   4.172  1.00  0.00    -0.773 OA
HETATM   10  H   UNL     1       8.436 -13.491   4.559  1.00  0.00     0.167 HD
ENDBRANCH   7   9
ENDBRANCH   1   7
BRANCH   3  11
HETATM   11  O   UNL     1      13.177 -10.895   6.076  1.00  0.00    -0.358 OA
HETATM   12  H   UNL     1      13.182 -10.388   5.245  1.00  0.00     0.217 HD
ENDBRANCH   3  11
BRANCH   4  13
HETATM   13  O   UNL     1      10.068 -13.365   8.752  1.00  0.00    -0.358 OA
HETATM   14  H   UNL     1       9.572 -12.784   9.354  1.00  0.00     0.217 HD
ENDBRANCH   4  13
BRANCH   2  15
HETATM   15  O   UNL     1      12.606 -12.320   8.379  1.00  0.00    -0.356 OA
HETATM   16  H   UNL     1      12.499 -11.639   9.065  1.00  0.00     0.218 HD
ENDBRANCH   2  15
TORSDOF 5
ENDMDL
MODEL 7
REMARK VINA RESULT:    -4.598     17.653     19.374
REMARK INTER + INTRA:          -5.462
REMARK INTER:                  -5.409
REMARK INTRA:                  -0.052
REMARK UNBOUND:                -0.057
REMARK  5 active torsions:
REMARK  status: ('A' for Active; 'I' for Inactive)
REMARK    1  A    between atoms: O_1  and  C_7 
REMARK    2  A    between atoms: O_2  and  C_8 
REMARK    3  A    between atoms: O_3  and  C_9 
REMARK    4  A    between atoms: O_4  and  C_12 
REMARK    5  A    between atoms: C_6  and  C_12 
ROOT
HETATM    1  C   UNL     1       9.671 -11.754   5.497  1.00  0.00     0.043 A 
HETATM    2  C   UNL     1      11.641 -12.134   7.436  1.00  0.00     0.132 A 
HETATM    3  C   UNL     1      10.363 -12.661   7.626  1.00  0.00     0.102 A 
HETATM    4  C   UNL     1      11.934 -11.417   6.275  1.00  0.00     0.102 A 
HETATM    5  C   UNL     1       9.379 -12.470   6.657  1.00  0.00     0.057 A 
HETATM    6  C   UNL     1      10.949 -11.226   5.307  1.00  0.00     0.057 A 
ENDROOT
BRANCH   1   7
HETATM    7  C   UNL     1       8.644 -11.554   4.487  1.00  0.00     0.176 C 
HETATM    8  O   UNL     1       8.367 -10.476   3.951  1.00  0.00    -0.646 OA
BRANCH   7   9
HETATM    9  O   UNL     1       7.991 -12.707   4.174  1.00  0.00    -0.773 OA
HETATM   10  H   UNL     1       8.511 -13.500   4.424  1.00  0.00     0.167 HD
ENDBRANCH   7   9
ENDBRANCH   1   7
BRANCH   3  11
HETATM   11  O   UNL     1      10.066 -13.364   8.755  1.00  0.00    -0.358 OA
HETATM   12  H   UNL     1      10.752 -13.194   9.424  1.00  0.00     0.217 HD
ENDBRANCH   3  11
BRANCH   4  13
HETATM   13  O   UNL     1      13.177 -10.895   6.078  1.00  0.00    -0.358 OA
HETATM   14  H   UNL     1      13.670 -11.494   5.491  1.00  0.00     0.217 HD
ENDBRANCH   4  13
BRANCH   2  15
HETATM   15  O   UNL     1      12.604 -12.320   8.384  1.00  0.00    -0.356 OA
HETATM   16  H   UNL     1      12.444 -13.175   8.819  1.00  0.00     0.218 HD
ENDBRANCH   2  15
TORSDOF 5
ENDMDL
MODEL 8
REMARK VINA RESULT:    -4.562     19.703     20.156
REMARK INTER + INTRA:          -5.420
REMARK INTER:                  -5.373
REMARK INTRA:                  -0.047
REMARK UNBOUND:                -0.057
REMARK  5 active torsions:
REMARK  status: ('A' for Active; 'I' for Inactive)
REMARK    1  A    between atoms: O_1  and  C_7 
REMARK    2  A    between atoms: O_2  and  C_8 
REMARK    3  A    between atoms: O_3  and  C_9 
REMARK    4  A    between atoms: O_4  and  C_12 
REMARK    5  A    between atoms: C_6  and  C_12 
ROOT
HETATM    1  C   UNL     1      14.095   9.462   5.737  1.00  0.00     0.043 A 
HETATM    2  C   UNL     1      12.920   6.933   5.635  1.00  0.00     0.132 A 
HETATM    3  C   UNL     1      12.171   8.035   6.050  1.00  0.00     0.102 A 
HETATM    4  C   UNL     1      14.257   7.097   5.271  1.00  0.00     0.102 A 
HETATM    5  C   UNL     1      12.759   9.298   6.101  1.00  0.00     0.057 A 
HETATM    6  C   UNL     1      14.844   8.360   5.322  1.00  0.00     0.057 A 
ENDROOT
BRANCH   1   7
HETATM    7  C   UNL     1      14.708  10.780   5.791  1.00  0.00     0.176 C 
HETATM    8  O   UNL     1      14.962  11.492   4.815  1.00  0.00    -0.646 OA
BRANCH   7   9
HETATM    9  O   UNL     1      14.988  11.171   7.065  1.00  0.00    -0.773 OA
HETATM   10  H   UNL     1      15.569  11.962   7.085  1.00  0.00     0.167 HD
ENDBRANCH   7   9
ENDBRANCH   1   7
BRANCH   3  11
HETATM   11  O   UNL     1      10.865   7.888   6.407  1.00  0.00    -0.358 OA
HETATM   12  H   UNL     1      10.472   8.768   6.542  1.00  0.00     0.217 HD
ENDBRANCH   3  11
BRANCH   4  13
HETATM   13  O   UNL     1      15.000   6.028   4.866  1.00  0.00    -0.358 OA
HETATM   14  H   UNL     1      14.532   5.215   5.123  1.00  0.00     0.217 HD
ENDBRANCH   4  13
BRANCH   2  15
HETATM   15  O   UNL     1      12.346   5.698   5.586  1.00  0.00    -0.356 OA
HETATM   16  H   UNL     1      11.963   5.573   4.700  1.00  0.00     0.218 HD
ENDBRANCH   2  15
TORSDOF 5
ENDMDL
MODEL 9
REMARK VINA RESULT:    -4.536     18.030     18.783
REMARK INTER + INTRA:          -5.389
REMARK INTER:                  -5.330
REMARK INTRA:                  -0.059
REMARK UNBOUND:                -0.057
REMARK  5 active torsions:
REMARK  status: ('A' for Active; 'I' for Inactive)
REMARK    1  A    between atoms: O_1  and  C_7 
REMARK    2  A    between atoms: O_2  and  C_8 
REMARK    3  A    between atoms: O_3  and  C_9 
REMARK    4  A    between atoms: O_4  and  C_12 
REMARK    5  A    between atoms: C_6  and  C_12 
ROOT
HETATM    1  C   UNL     1      12.638  13.960  -0.727  1.00  0.00     0.043 A 
HETATM    2  C   UNL     1      11.795  13.193  -3.274  1.00  0.00     0.132 A 
HETATM    3  C   UNL     1      11.218  12.613  -2.144  1.00  0.00     0.102 A 
HETATM    4  C   UNL     1      12.794  14.157  -3.130  1.00  0.00     0.102 A 
HETATM    5  C   UNL     1      11.640  12.996  -0.871  1.00  0.00     0.057 A 
HETATM    6  C   UNL     1      13.215  14.540  -1.857  1.00  0.00     0.057 A 
ENDROOT
BRANCH   1   7
HETATM    7  C   UNL     1      13.079  14.358   0.601  1.00  0.00     0.176 C 
HETATM    8  O   UNL     1      14.104  15.000   0.851  1.00  0.00    -0.646 OA
BRANCH   7   9
HETATM    9  O   UNL     1      12.227  13.944   1.577  1.00  0.00    -0.773 OA
HETATM   10  H   UNL     1      11.339  14.351   1.485  1.00  0.00     0.167 HD
ENDBRANCH   7   9
ENDBRANCH   1   7
BRANCH   3  11
HETATM   11  O   UNL     1      10.242  11.672  -2.272  1.00  0.00    -0.358 OA
HETATM   12  H   UNL     1      10.093  11.495  -3.217  1.00  0.00     0.217 HD
ENDBRANCH   3  11
BRANCH   4  13
HETATM   13  O   UNL     1      13.366  14.730  -4.226  1.00  0.00    -0.358 OA
HETATM   14  H   UNL     1      14.310  14.494  -4.236  1.00  0.00     0.217 HD
ENDBRANCH   4  13
BRANCH   2  15
HETATM   15  O   UNL     1      11.383  12.818  -4.519  1.00  0.00    -0.356 OA
HETATM   16  H   UNL     1      10.941  11.955  -4.448  1.00  0.00     0.218 HD
ENDBRANCH   2  15
TORSDOF 5
ENDMDL
